/*--------------------------------*- C++ -*----------------------------------*\
  =========                 |
  \\      /  F ield         | OpenFOAM: The Open Source CFD Toolbox
   \\    /   O peration     | Website:  https://openfoam.org
    \\  /    A nd           | Version:  7
     \\/     M anipulation  |
\*---------------------------------------------------------------------------*/
FoamFile
{
    version     2.0;
    format      binary;
    class       polyBoundaryMesh;
    location    "constant/polyMesh";
    object      boundary;
}
// * * * * * * * * * * * * * * * * * * * * * * * * * * * * * * * * * * * * * //

7
(
    wallOutside
    {
        type            wall;
        inGroups        List<word> 1(wall);
        nFaces          9149;
        startFace       1425327;
    }
    inletAir
    {
        type            patch;
        nFaces          0;
        startFace       1434476;
    }
    outlet
    {
        type            patch;
        nFaces          49;
        startFace       1434476;
    }
    inletCH4
    {
        type            patch;
        nFaces          0;
        startFace       1434525;
    }
    inletPilot
    {
        type            patch;
        nFaces          0;
        startFace       1434525;
    }
    wallTube
    {
        type            wall;
        inGroups        List<word> 1(wall);
        nFaces          0;
        startFace       1434525;
    }
    procBoundary0to1
    {
        type            processor;
        inGroups        List<word> 1(processor);
        nFaces          8534;
        startFace       1434525;
        matchTolerance  0.0001;
        transform       unknown;
        myProcNo        0;
        neighbProcNo    1;
    }
)

// ************************************************************************* //
