FoamFile
{
	version	2.0;
	format	ascii;
	class	polyBoundaryMesh;
	location	"constant/polyMesh";
	object	boundary;
}
6
(
	wallOutside
	{
		type	wall;
		startFace	1681857;
		nFaces	38232;
	}
	inletAir
	{
		type	patch;
		startFace	1720089;
		nFaces	1076;
	}
	outlet
	{
		type	patch;
		startFace	1721165;
		nFaces	3462;
	}
	 inletPilot
	{
		type	patch;
		startFace	1724627;
		nFaces	600;
	}
	 inletCH4
	{
		type	patch;
		startFace	1725227;
		nFaces	480;
	}
	wallTube
	{
		type	wall;
		startFace	1725707;
		nFaces	15171;
	}
)
