/*--------------------------------*- C++ -*----------------------------------*\
  =========                 |
  \\      /  F ield         | OpenFOAM: The Open Source CFD Toolbox
   \\    /   O peration     | Website:  https://openfoam.org
    \\  /    A nd           | Version:  7
     \\/     M anipulation  |
\*---------------------------------------------------------------------------*/
FoamFile
{
    version     2.0;
    format      ascii;
    class       volVectorField;
    location    "0";
    object      U;
}
// * * * * * * * * * * * * * * * * * * * * * * * * * * * * * * * * * * * * * //

dimensions      [0 1 -1 0 0 0 0];

internalField   uniform (0 0 0.9);

boundaryField
{
    wallTube
    {
        type            noSlip;
    }

    outlet
    {
        type            pressureInletOutletVelocity;
        value           $internalField;
    }

    inletPilot
    {
      type            flowRateInletVelocity;
      massFlowRate    constant 0.00075945;
      rhoInlet        1.1965;
      value           uniform (0 0 0);
    }

    inletAir
    {
      type            flowRateInletVelocity;
      massFlowRate    constant 0.009545;
      rhoInlet        1.1965;
      value           uniform (0 0 0);
    }

    wallOutside
    {
        type            zeroGradient;
    }

    inletCH4
    {
      type            flowRateInletVelocity;
      massFlowRate    constant 0.00011667;
      rhoInlet        1.1965;
      value           uniform (0 0 0);
    }

    
}


// ************************************************************************* //
